results/congestion_identification/tables/scenario_bus_metrics__twoev_clustered_samephase.csv
bus,distance_km,va_pu,vb_pu,vc_pu,margin_low_a,margin_high_a,risk_a,viol_a_low,viol_a_high,margin_low_b,margin_high_b,risk_b,viol_b_low,viol_b_high,margin_low_c,margin_high_c,risk_c,viol_c_low,viol_c_high,bus_risk,vuf,vuf_viol,any_voltage_viol
101,0.070017341,0.967449429148029,0.991803846519957,1.009638240042662,0.02744942914802906,0.13255057085197108,0.02744942914802906,false,false,0.051803846519957064,0.10819615348004308,0.051803846519957064,false,false,0.06963824004266206,0.09036175995733808,0.06963824004266206,false,false,0.02744942914802906,0.006670589997213329,false,false
475,0.19288306100000005,0.9519511909189896,0.9889768753181207,1.014334174513718,0.011951190918989663,0.14804880908101048,0.011951190918989663,false,false,0.04897687531812078,0.11102312468187936,0.04897687531812078,false,false,0.07433417451371804,0.0856658254862821,0.07433417451371804,false,false,0.011951190918989663,0.009816859226650446,false,false
619,0.24424393100000003,0.9509448318055178,0.9890082045295332,1.0145412114240087,0.010944831805517863,0.14905516819448228,0.010944831805517863,false,false,0.04900820452953325,0.11099179547046689,0.04900820452953325,false,false,0.07454121142400871,0.08545878857599143,0.07454121142400871,false,false,0.010944831805517863,0.010022072472465454,false,false
505,0.157044805,0.9544595354260393,0.9845958546285799,1.015479758081239,0.014459535426039394,0.14554046457396075,0.014459535426039394,false,false,0.044595854628579956,0.11540414537142019,0.044595854628579956,false,false,0.07547975808123897,0.08452024191876117,0.07547975808123897,false,false,0.014459535426039394,0.009401471393339212,false,false
332,0.14164547100000002,0.9559291655761404,0.9879612366110776,1.01379107683157,0.015929165576140436,0.1440708344238597,0.015929165576140436,false,false,0.04796123661107765,0.11203876338892249,0.04796123661107765,false,false,0.07379107683157016,0.08620892316842999,0.07379107683157016,false,false,0.015929165576140436,0.0090357774080529,false,false
817,0.20151218600000004,0.9523781541988714,0.9834481036435775,1.0163615188364556,0.01237815419887145,0.1476218458011287,0.01237815419887145,false,false,0.04344810364357754,0.1165518963564226,0.04344810364357754,false,false,0.0763615188364557,0.08363848116354444,0.0763615188364557,false,false,0.01237815419887145,0.009845810499503586,false,false
453,0.17930876100000004,0.9525563500276975,0.9888476182358109,1.0142433395893937,0.012556350027697505,0.14744364997230264,0.012556350027697505,false,false,0.04884761823581096,0.11115238176418918,0.04884761823581096,false,false,0.07424333958939378,0.08575666041060637,0.07424333958939378,false,false,0.012556350027697505,0.009696241517471706,false,false
289,0.09733513099999999,0.9635002539192834,0.9908082948241034,1.0107196610055764,0.023500253919283454,0.1364997460807167,0.023500253919283454,false,false,0.05080829482410343,0.10919170517589671,0.05080829482410343,false,false,0.07071966100557647,0.08928033899442367,0.07071966100557647,false,false,0.023500253919283454,0.007507635462216133,false,false
596,0.22983433100000003,0.9509446451869051,0.989128943691226,1.0145054653693144,0.010944645186905189,0.14905535481309495,0.010944645186905189,false,false,0.049128943691226,0.11087105630877414,0.049128943691226,false,false,0.07450546536931446,0.08549453463068568,0.07450546536931446,false,false,0.010944645186905189,0.010019475986441042,false,false
387,0.121525759,0.9597646531701312,0.9881269637127978,1.0127860783816869,0.019764653170131208,0.14023534682986893,0.019764653170131208,false,false,0.0481269637127979,0.11187303628720224,0.0481269637127979,false,false,0.07278607838168694,0.0872139216183132,0.07278607838168694,false,false,0.019764653170131208,0.008275824943264301,false,false
666,0.17654625600000004,0.9528824362227866,0.98329513492864,1.0163572513532946,0.01288243622278662,0.14711756377721352,0.01288243622278662,false,false,0.04329513492864001,0.11670486507136013,0.04329513492864001,false,false,0.07635725135329463,0.08364274864670551,0.07635725135329463,false,false,0.01288243622278662,0.009746828293680636,false,false
906,0.278199666,0.9466206543931872,0.9838881304138737,1.0176044566189717,0.006620654393187264,0.15337934560681288,0.006620654393187264,false,false,0.04388813041387374,0.1161118695861264,0.04388813041387374,false,false,0.07760445661897175,0.08239554338102839,0.07760445661897175,false,false,0.006620654393187264,0.010969311467393446,false,false
891,0.22037078500000004,0.949781617737594,0.9832303543952188,1.017137027657278,0.009781617737594006,0.15021838226240614,0.009781617737594006,false,false,0.04323035439521883,0.11676964560478131,0.04323035439521883,false,false,0.07713702765727803,0.08286297234272211,0.07713702765727803,false,false,0.009781617737594006,0.010362036818442923,false,false
59,0.056641121,0.9726765836491453,0.9936667440671524,1.00791053433251,0.032676583649145385,0.12732341635085476,0.032676583649145385,false,false,0.05366674406715244,0.1063332559328477,0.05366674406715244,false,false,0.06791053433251015,0.09208946566748999,0.06791053433251015,false,false,0.032676583649145385,0.005576773379718809,false,false
530,0.141416429,0.9570552829258818,0.9860799776719125,1.0142490175220824,0.017055282925881876,0.14294471707411827,0.017055282925881876,false,false,0.04607997767191252,0.11392002232808762,0.04607997767191252,false,false,0.07424901752208246,0.08575098247791768,0.07424901752208246,false,false,0.017055282925881876,0.00885597576340256,false,false
34,0.034119541,0.9862947629688682,0.9982472207388489,1.0033791242444587,0.04629476296886825,0.11370523703113189,0.04629476296886825,false,false,0.058247220738848915,0.10175277926115123,0.058247220738848915,false,false,0.0633791242444588,0.09662087575554135,0.0633791242444588,false,false,0.04629476296886825,0.0027942118453346872,false,false
594,0.164756106,0.9538045090125199,0.9840777027424842,1.015836808898939,0.01380450901251995,0.1461954909874802,0.01380450901251995,false,false,0.04407770274248424,0.1159222972575159,0.04407770274248424,false,false,0.07583680889893896,0.08416319110106119,0.07583680889893896,false,false,0.01380450901251995,0.009544024806849623,false,false
651,0.23560451100000004,0.9508057114156859,0.989204824339576,1.0144835617377534,0.010805711415685981,0.14919428858431416,0.010805711415685981,false,false,0.04920482433957607,0.11079517566042407,0.04920482433957607,false,false,0.0744835617377535,0.08551643826224664,0.0744835617377535,false,false,0.010805711415685981,0.01005067757785775,false,false
522,0.167517005,0.9543528071831304,0.9846282038857934,1.0154806833803065,0.014352807183130478,0.14564719281686966,0.014352807183130478,false,false,0.04462820388579347,0.11537179611420667,0.04462820388579347,false,false,0.07548068338030656,0.08451931661969359,0.07548068338030656,false,false,0.014352807183130478,0.009422611361638454,false,false
676,0.24095110100000006,0.9507539451336287,0.9892205051898167,1.0144840740458456,0.010753945133628706,0.14924605486637144,0.010753945133628706,false,false,0.0492205051898168,0.11077949481018334,0.0492205051898168,false,false,0.07448407404584567,0.08551592595415447,0.07448407404584567,false,false,0.010753945133628706,0.01006185858255708,false,false
539,0.147000129,0.9570553362313512,0.9860359833413129,1.0142620723763573,0.017055336231351248,0.1429446637686489,0.017055336231351248,false,false,0.04603598334131298,0.11396401665868716,0.04603598334131298,false,false,0.0742620723763574,0.08573792762364274,0.0742620723763574,false,false,0.017055336231351248,0.008857997780293841,false,false
127,0.082987971,0.9643795910209199,0.9905428760802033,1.0107112300460235,0.02437959102091991,0.13562040897908023,0.02437959102091991,false,false,0.05054287608020336,0.10945712391979678,0.05054287608020336,false,false,0.07071123004602353,0.08928876995397661,0.07071123004602353,false,false,0.02437959102091991,0.007323331266436864,false,false
884,0.270107986,0.946728440231568,0.9838553946526973,1.0176035012562485,0.006728440231568045,0.1532715597684321,0.006728440231568045,false,false,0.04385539465269739,0.11614460534730275,0.04385539465269739,false,false,0.0776035012562486,0.08239649874375155,0.0776035012562486,false,false,0.006728440231568045,0.010947294051493365,false,false
739,0.23412883600000006,0.946056517687818,0.9842233198442056,1.0174306658972259,0.006056517687818008,0.15394348231218213,0.006056517687818008,false,false,0.04422331984420569,0.11577668015579445,0.04422331984420569,false,false,0.07743066589722591,0.08256933410277423,0.07743066589722591,false,false,0.006056517687818008,0.011095847469973523,false,false
276,0.117152381,0.9639083479824776,0.9906615058975673,1.0107352155668807,0.02390834798247765,0.1360916520175225,0.02390834798247765,false,false,0.05066150589756735,0.10933849410243279,0.05066150589756735,false,false,0.07073521556688078,0.08926478443311936,0.07073521556688078,false,false,0.02390834798247765,0.007423505899354996,false,false
778,0.20167822600000004,0.9522324142657149,0.9802248183746427,1.0174769095222969,0.012232414265714975,0.14776758573428517,0.012232414265714975,false,false,0.04022481837464276,0.11977518162535739,0.04022481837464276,false,false,0.07747690952229691,0.08252309047770323,0.07747690952229691,false,false,0.012232414265714975,0.010047164316209918,false,false
691,0.19670126600000004,0.9513891113650522,0.9828309173612922,1.0169320707326823,0.011389111365052274,0.14861088863494787,0.011389111365052274,false,false,0.0428309173612923,0.11716908263870784,0.0428309173612923,false,false,0.07693207073268238,0.08306792926731776,0.07693207073268238,false,false,0.011389111365052274,0.010057161425403924,false,false
458,0.144599145,0.957779253237615,0.9855371881939914,1.014188735383589,0.01777925323761509,0.14222074676238505,0.01777925323761509,false,false,0.04553718819399144,0.1144628118060087,0.04553718819399144,false,false,0.07418873538358906,0.08581126461641109,0.07418873538358906,false,false,0.01777925323761509,0.00875152762778169,false,false
745,0.23987546600000004,0.9475642554359366,0.9835956607073536,1.0175294804633896,0.00756425543593664,0.1524357445640635,0.00756425543593664,false,false,0.043595660707353656,0.11640433929264649,0.043595660707353656,false,false,0.0775294804633897,0.08247051953661044,0.0775294804633897,false,false,0.00756425543593664,0.01078635782724739,false,false
556,0.151217029,0.9570553787444268,0.986001039327969,1.0142724416824196,0.017055378744426863,0.14294462125557328,0.017055378744426863,false,false,0.04600103932796906,0.11399896067203108,0.04600103932796906,false,false,0.07427244168241964,0.0857275583175805,0.07427244168241964,false,false,0.017055378744426863,0.008859613001122075,false,false
263,0.111071681,0.9592727747745903,0.9877246951523244,1.0130836477672596,0.01927277477459033,0.1407272252254098,0.01927277477459033,false,false,0.04772469515232447,0.11227530484767567,0.04772469515232447,false,false,0.07308364776725962,0.08691635223274052,0.07308364776725962,false,false,0.01927277477459033,0.008379207436031523,false,false
896,0.22362948500000004,0.9497488413824645,0.9832403038530574,1.0171373086224984,0.009748841382464568,0.15025115861753557,0.009748841382464568,false,false,0.04324030385305744,0.1167596961469427,0.04324030385305744,false,false,0.07713730862249846,0.08286269137750168,0.07713730862249846,false,false,0.009748841382464568,0.010368562136029862,false,false
83,0.047656331,0.9803597112641436,0.9967902977480817,1.0051255918138358,0.040359711264143616,0.11964028873585653,0.040359711264143616,false,false,0.05679029774808175,0.10320970225191839,0.05679029774808175,false,false,0.06512559181383581,0.09487440818616433,0.06512559181383581,false,false,0.040359711264143616,0.004002038866121358,false,false
868,0.28540650600000006,0.9462168340087549,0.9839728876607922,1.0177208071142159,0.006216834008754946,0.1537831659912452,0.006216834008754946,false,false,0.043972887660792215,0.11602711233920793,0.043972887660792215,false,false,0.07772080711421592,0.08227919288578422,0.07772080711421592,false,false,0.006216834008754946,0.0110384612977298,false,false
802,0.262138866,0.9469194248655157,0.9837939983581145,1.0176074526631036,0.0069194248655157775,0.15308057513448436,0.0069194248655157775,false,false,0.043793998358114594,0.11620600164188555,0.043793998358114594,false,false,0.07760745266310365,0.0823925473368965,0.07760745266310365,false,false,0.0069194248655157775,0.010908812533298947,false,false
27,0.028768241,0.9866038556903791,0.9981545637031953,1.0033760185490668,0.04660385569037917,0.11339614430962097,0.04660385569037917,false,false,0.05815456370319538,0.10184543629680476,0.05815456370319538,false,false,0.06337601854906683,0.09662398145093332,0.06337601854906683,false,false,0.04660385569037917,0.002725063034560717,false,false
208,0.116354311,0.9672591505312618,0.9915150211413144,1.0097827138114046,0.027259150531261822,0.13274084946873832,0.027259150531261822,false,false,0.051515021141314454,0.10848497885868569,0.051515021141314454,false,false,0.06978271381140466,0.09021728618859548,0.06978271381140466,false,false,0.027259150531261822,0.006723886624473547,false,false
688,0.18761383600000003,0.9529729692805451,0.9835110906286967,1.0162399166664893,0.012972969280545144,0.147027030719455,0.012972969280545144,false,false,0.043511090628696736,0.1164889093713034,0.043511090628696736,false,false,0.07623991666648933,0.08376008333351082,0.07623991666648933,false,false,0.012972969280545144,0.009723914537636137,false,false
780,0.257877766,0.9475651619551441,0.9833155063770174,1.0176123497955558,0.007565161955144117,0.15243483804485602,0.007565161955144117,false,false,0.04331550637701742,0.11668449362298272,0.04331550637701742,false,false,0.07761234979555587,0.08238765020444427,0.07761234979555587,false,false,0.007565161955144117,0.010799283651004701,false,false
178,0.103229811,0.9661537715573177,0.992160627487204,1.0096927499456634,0.026153771557317795,0.13384622844268235,0.026153771557317795,false,false,0.05216062748720407,0.10783937251279607,0.05216062748720407,false,false,0.06969274994566343,0.09030725005433671,0.06969274994566343,false,false,0.026153771557317795,0.006950309331438526,false,false
544,0.21960006100000004,0.9511774679931491,0.9891460074303733,1.0144262874207373,0.011177467993149115,0.14882253200685103,0.011177467993149115,false,false,0.04914600743037334,0.1108539925696268,0.04914600743037334,false,false,0.07442628742073731,0.08557371257926283,0.07442628742073731,false,false,0.011177467993149115,0.009974944596861515,false,false
225,0.129587811,0.9670410126738025,0.9918649827090519,1.0097098653527554,0.027041012673802545,0.1329589873261976,0.027041012673802545,false,false,0.05186498270905193,0.10813501729094821,0.05186498270905193,false,false,0.06970986535275547,0.09029013464724467,0.06970986535275547,false,false,0.027041012673802545,0.006764725868871555,false,false
899,0.2947454360000001,0.9459186099395128,0.9840380718289928,1.017776932613564,0.0059186099395128755,0.15408139006048727,0.0059186099395128755,false,false,0.044038071828992886,0.11596192817100726,0.044038071828992886,false,false,0.077776932613564,0.08222306738643614,0.077776932613564,false,false,0.0059186099395128755,0.011092839165242466,false,false
249,0.137424511,0.9669004967838566,0.9919072344065746,1.0097145552137574,0.026900496783856642,0.1330995032161435,0.026900496783856642,false,false,0.05190723440657463,0.10809276559342551,0.05190723440657463,false,false,0.06971455521375747,0.09028544478624267,0.06971455521375747,false,false,0.026900496783856642,0.006795129558935722,false,false
562,0.22625546100000005,0.9511069767535164,0.9891673590259724,1.0144269829451535,0.011106976753516462,0.14889302324648368,0.011106976753516462,false,false,0.04916735902597247,0.11083264097402767,0.04916735902597247,false,false,0.0744269829451536,0.08557301705484655,0.0744269829451536,false,false,0.011106976753516462,0.00999013938713596,false,false
559,0.22189104100000004,0.9510562309414659,0.9891289388284163,1.0144810864930285,0.011056230941465905,0.14894376905853424,0.011056230941465905,false,false,0.0491289388284164,0.11087106117158374,0.0491289388284164,false,false,0.07448108649302854,0.0855189135069716,0.07448108649302854,false,false,0.011056230941465905,0.009996641910237223,false,false
794,0.259335766,0.94695164572549,0.9837876055606465,1.0176015267800809,0.006951645725490008,0.15304835427451013,0.006951645725490008,false,false,0.043787605560646536,0.1162123944393536,0.043787605560646536,false,false,0.07760152678008092,0.08239847321991922,0.07760152678008092,false,false,0.006951645725490008,0.010901783989746993,false,false
327,0.12914669199999998,0.9643223872153204,0.9903636346993413,1.0107822126600907,0.02432238721532043,0.1356776127846797,0.02432238721532043,false,false,0.05036363469934135,0.10963636530065879,0.05036363469934135,false,false,0.07078221266009077,0.08921778733990937,0.07078221266009077,false,false,0.02432238721532043,0.007339887873238097,false,false
171,0.096992511,0.9672595610173763,0.9917994320609854,1.009698054935419,0.027259561017376366,0.13274043898262378,0.027259561017376366,false,false,0.05179943206098547,0.10820056793901467,0.05179943206098547,false,false,0.06969805493541914,0.090301945064581,0.06969805493541914,false,false,0.027259561017376366,0.006716438680092881,false,false
502,0.20983856100000006,0.9517170486738256,0.989047788679428,1.0143364696004666,0.011717048673825614,0.14828295132617453,0.011717048673825614,false,false,0.04904778867942805,0.11095221132057209,0.04904778867942805,false,false,0.07433646960046669,0.08566353039953345,0.07433646960046669,false,false,0.011717048673825614,0.009867101375548476,false,false
247,0.107002101,0.9599118375254518,0.988082457802535,1.0127847228603999,0.019911837525451892,0.14008816247454825,0.019911837525451892,false,false,0.04808245780253506,0.11191754219746508,0.04808245780253506,false,false,0.07278472286039994,0.0872152771396002,0.07278472286039994,false,false,0.019911837525451892,0.008245796517793651,false,false
835,0.256406886,0.9475651368205255,0.9833232335161106,1.017610064085863,0.007565136820525509,0.15243486317947463,0.007565136820525509,false,false,0.04332323351611067,0.11667676648388947,0.04332323351611067,false,false,0.07761006408586302,0.08238993591413712,0.07761006408586302,false,false,0.007565136820525509,0.010798921355543249,false,false
785,0.175696984,0.9532855471111958,0.9846792244214838,1.0156289530940492,0.013285547111195894,0.14671445288880425,0.013285547111195894,false,false,0.044679224421483865,0.11532077557851628,0.044679224421483865,false,false,0.07562895309404927,0.08437104690595087,0.07562895309404927,false,false,0.013285547111195894,0.009639416603372917,false,false
611,0.22597707100000003,0.9511227360645436,0.9891625855637444,1.0144268274073975,0.011122736064543615,0.14887726393545653,0.011122736064543615,false,false,0.04916258556374442,0.11083741443625572,0.04916258556374442,false,false,0.07442682740739759,0.08557317259260255,0.07442682740739759,false,false,0.011122736064543615,0.009986741524699062,false,false
248,0.137424511,0.9669100215853436,0.9919043622256026,1.009714462648388,0.026910021585343613,0.13308997841465653,0.026910021585343613,false,false,0.051904362225602685,0.10809563777439746,0.051904362225602685,false,false,0.0697144626483881,0.09028553735161204,0.0697144626483881,false,false,0.026910021585343613,0.00679312150985905,false,false
342,0.126039431,0.9592732761280458,0.9868763087517723,1.0133355762499698,0.019273276128045858,0.14072672387195428,0.019273276128045858,false,false,0.0468763087517724,0.11312369124822774,0.0468763087517724,false,false,0.07333557624996989,0.08666442375003025,0.07333557624996989,false,false,0.019273276128045858,0.00841519198765565,false,false
639,0.25548595100000004,0.9502488465506496,0.989298067876612,1.0146248307031474,0.010248846550649615,0.14975115344935053,0.010248846550649615,false,false,0.04929806787661206,0.11070193212338808,0.04929806787661206,false,false,0.0746248307031474,0.08537516929685274,0.0746248307031474,false,false,0.010248846550649615,0.010154095931479977,false,false
264,0.117678811,0.9672591221672369,0.9914951122565292,1.0097886400544158,0.027259122167236916,0.13274087783276323,0.027259122167236916,false,false,0.05149511225652925,0.10850488774347089,0.05149511225652925,false,false,0.06978864005441587,0.09021135994558427,0.06978864005441587,false,false,0.027259122167236916,0.00672443483380644,false,false
32,0.035485741,0.9815089292900196,0.996445230333077,1.0051140927719187,0.0415089292900197,0.11849107070998044,0.0415089292900197,false,false,0.05644523033307702,0.10355476966692312,0.05644523033307702,false,false,0.06511409277191871,0.09488590722808143,0.06511409277191871,false,false,0.0415089292900197,0.00375111893938894,false,false
320,0.132938741,0.9643223906385562,0.9903678831578321,1.0107809490884518,0.024322390638556235,0.1356776093614439,0.024322390638556235,false,false,0.05036788315783214,0.109632116842168,0.05036788315783214,false,false,0.0707809490884519,0.08921905091154825,0.0707809490884519,false,false,0.024322390638556235,0.007339759787026251,false,false
155,0.084692511,0.9672967991687432,0.9918159461618354,1.009681619689437,0.02729679916874328,0.13270320083125686,0.02729679916874328,false,false,0.05181594616183549,0.10818405383816465,0.05181594616183549,false,false,0.06968161968943698,0.09031838031056316,0.06968161968943698,false,false,0.02729679916874328,0.006708417858896411,false,false
701,0.20077766600000005,0.9522380668595848,0.97840792914663,1.0180154148795038,0.01223806685958484,0.1477619331404153,0.01223806685958484,false,false,0.03840792914663005,0.1215920708533701,0.03840792914663005,false,false,0.07801541487950381,0.08198458512049633,0.07801541487950381,false,false,0.01223806685958484,0.010184082961281,false,false
682,0.24162945100000005,0.950753981140256,0.9892204942827971,1.01448407368941,0.010753981140256053,0.1492460188597441,0.010753981140256053,false,false,0.04922049428279718,0.11077950571720296,0.04922049428279718,false,false,0.07448407368941012,0.08551592631059002,0.07448407368941012,false,false,0.010753981140256053,0.010061850803668667,false,false
196,0.111128611,0.9672134112548076,0.9918129973196753,1.0097081940342263,0.027213411254807696,0.13278658874519245,0.027213411254807696,false,false,0.05181299731967537,0.10818700268032477,0.05181299731967537,false,false,0.06970819403422635,0.0902918059657738,0.06970819403422635,false,false,0.027213411254807696,0.0067284920644451,false,false
707,0.20762276600000004,0.9500217467680422,0.9831574625906376,1.0171349727270291,0.010021746768042239,0.1499782532319579,0.010021746768042239,false,false,0.043157462590637685,0.11684253740936246,0.043157462590637685,false,false,0.07713497272702918,0.08286502727297096,0.07713497272702918,false,false,0.010021746768042239,0.010314315161314404,false,false
718,0.22286866600000005,0.9480823547078977,0.9836081304241576,1.0174127587305728,0.008082354707897754,0.1519176452921024,0.008082354707897754,false,false,0.043608130424157676,0.11639186957584247,0.043608130424157676,false,false,0.07741275873057285,0.08258724126942729,0.07741275873057285,false,false,0.008082354707897754,0.010681964257908879,false,false
226,0.118500011,0.967197578123795,0.9918176513493754,1.0097116726086284,0.027197578123795085,0.13280242187620506,0.027197578123795085,false,false,0.05181765134937544,0.1081823486506247,0.05181765134937544,false,false,0.06971167260862843,0.09028832739137171,0.06971167260862843,false,false,0.027197578123795085,0.006732627686151267,false,false
614,0.178760406,0.9538048109382008,0.9839376396939122,1.0158783285084105,0.013804810938200851,0.1461951890617993,0.013804810938200851,false,false,0.04393763969391229,0.11606236030608785,0.04393763969391229,false,false,0.07587832850841059,0.08412167149158956,0.07587832850841059,false,false,0.013804810938200851,0.009551310177765629,false,false
755,0.24090663600000006,0.9459967862890374,0.9842414600260742,1.0174312006630877,0.005996786289037437,0.1540032137109627,0.005996786289037437,false,false,0.04424146002607421,0.11575853997392593,0.04424146002607421,false,false,0.07743120066308773,0.08256879933691241,0.07743120066308773,false,false,0.005996786289037437,0.011108189898078592,false,false
702,0.21167596600000005,0.9512578721982344,0.9828707465250678,1.0169331746582544,0.011257872198234486,0.14874212780176566,0.011257872198234486,false,false,0.04287074652506784,0.1171292534749323,0.04287074652506784,false,false,0.07693317465825444,0.0830668253417457,0.07693317465825444,false,false,0.011257872198234486,0.010082876082869691,false,false
898,0.28044428600000004,0.9466747907455499,0.983872179370336,1.0176075429554283,0.006674790745549997,0.15332520925445015,0.006674790745549997,false,false,0.04387217937033605,0.11612782062966409,0.04387217937033605,false,false,0.07760754295542838,0.08239245704457177,0.07760754295542838,false,false,0.006674790745549997,0.010957621902671381,false,false
261,0.110267781,0.963959209485131,0.9906461538064897,1.0107347279490035,0.023959209485131083,0.13604079051486906,0.023959209485131083,false,false,0.050646153806489735,0.1093538461935104,0.050646153806489735,false,false,0.0707347279490036,0.08926527205099655,0.0707347279490036,false,false,0.023959209485131083,0.007412853599982999,false,false
854,0.19402790600000003,0.9524403787879205,0.9834292281218064,1.0163609907994946,0.012440378787920592,0.14755962121207955,0.012440378787920592,false,false,0.043429228121806496,0.11657077187819365,0.043429228121806496,false,false,0.07636099079949465,0.08363900920050549,0.07636099079949465,false,false,0.012440378787920592,0.009833558302637768,false,false
337,0.147722971,0.9565535841379684,0.9876755981637979,1.0137436433279317,0.01655358413796848,0.14344641586203166,0.01655358413796848,false,false,0.04767559816379796,0.11232440183620218,0.04767559816379796,false,false,0.07374364332793171,0.08625635667206843,0.07374364332793171,false,false,0.01655358413796848,0.008919502731508176,false,false
690,0.19432036600000005,0.9522323172549799,0.980257216562712,1.0174673078977758,0.012232317254979974,0.14776768274502017,0.012232317254979974,false,false,0.040257216562712084,0.11974278343728806,0.040257216562712084,false,false,0.0774673078977759,0.08253269210222425,0.0774673078977759,false,false,0.012232317254979974,0.010044889679824379,false,false
373,0.12336469500000001,0.9577779823669736,0.9867498522140672,1.0138287960292716,0.0177779823669737,0.14222201763302644,0.0177779823669737,false,false,0.046749852214067245,0.1132501477859329,0.046749852214067245,false,false,0.07382879602927161,0.08617120397072853,0.07382879602927161,false,false,0.0177779823669737,0.008694509729821024,false,false
283,0.125821891,0.9643224096729746,0.9903914553380526,1.010773938286687,0.02432240967297461,0.13567759032702553,0.02432240967297461,false,false,0.05039145533805267,0.10960854466194747,0.05039145533805267,false,false,0.07077393828668699,0.08922606171331315,0.07077393828668699,false,false,0.02432240967297461,0.007339051773391779,false,false
508,0.20894164100000004,0.9513818355269531,0.9890841057825117,1.0144242739531606,0.011381835526953155,0.148618164473047,0.011381835526953155,false,false,0.04908410578251177,0.11091589421748838,0.04908410578251177,false,false,0.07442427395316065,0.0855757260468395,0.07442427395316065,false,false,0.011381835526953155,0.009930947761215015,false,false
813,0.23988498900000005,0.9450716460048408,0.9845224336698553,1.0174395290589435,0.005071646004840891,0.15492835399515925,0.005071646004840891,false,false,0.04452243366985531,0.11547756633014483,0.04452243366985531,false,false,0.07743952905894358,0.08256047094105656,0.07743952905894358,false,false,0.005071646004840891,0.011300321105205166,false,false
188,0.109440711,0.9672592348589252,0.9915740080882836,1.0097651553331697,0.02725923485892523,0.1327407651410749,0.02725923485892523,false,false,0.05157400808828361,0.10842599191171653,0.05157400808828361,false,false,0.06976515533316974,0.0902348446668304,0.06976515533316974,false,false,0.02725923485892523,0.006722282976615443,false,false
629,0.19583531100000004,0.9511742165346366,0.9892661972263114,1.0142568864978054,0.011174216534636683,0.14882578346536346,0.011174216534636683,false,false,0.049266197226311426,0.11073380277368872,0.049266197226311426,false,false,0.07425688649780549,0.08574311350219466,0.07425688649780549,false,false,0.011174216534636683,0.009993275878550196,false,false
900,0.23006408500000003,0.9496965254102746,0.9832561847384792,1.0171377573087839,0.009696525410274659,0.15030347458972548,0.009696525410274659,false,false,0.04325618473847925,0.11674381526152089,0.04325618473847925,false,false,0.07713775730878392,0.08286224269121623,0.07713775730878392,false,false,0.009696525410274659,0.010378983247285558,false,false
697,0.19889196600000003,0.9512208053615668,0.9828718259094241,1.0169657356726305,0.011220805361566888,0.14877919463843325,0.011220805361566888,false,false,0.04287182590942418,0.11712817409057596,0.04287182590942418,false,false,0.07696573567263054,0.0830342643273696,0.07696573567263054,false,false,0.011220805361566888,0.010089924649282734,false,false
sourcebus,0.0,0.9999999984102783,0.9999999998472672,0.9999999999532234,0.059999998410278366,0.10000000158972178,0.059999998410278366,false,false,0.05999999984726723,0.10000000015273292,0.05999999984726723,false,false,0.05999999995322347,0.10000000004677667,0.05999999995322347,false,false,0.059999998410278366,4.975942632138088e-10,false,false
66,0.064899421,0.9722693567643006,0.9937893385388036,1.0079145356313846,0.03226935676430065,0.1277306432356995,0.03226935676430065,false,false,0.05378933853880363,0.10621066146119651,0.05378933853880363,false,false,0.06791453563138461,0.09208546436861553,0.06791453563138461,false,false,0.03226935676430065,0.005663325756921716,false,false
763,0.250748766,0.9475649464175045,0.9833818450048494,1.0175927266955813,0.007564946417504603,0.15243505358249554,0.007564946417504603,false,false,0.04338184500484943,0.11661815499515071,0.04338184500484943,false,false,0.07759272669558137,0.08240727330441877,0.07759272669558137,false,false,0.007564946417504603,0.010796183959531976,false,false
241,0.132122311,0.9669528808698471,0.9918914381431159,1.0097140462405911,0.02695288086984715,0.133047119130153,0.02695288086984715,false,false,0.05189143814311592,0.10810856185688422,0.05189143814311592,false,false,0.06971404624059119,0.09028595375940895,0.06971404624059119,false,false,0.02695288086984715,0.006784089166563171,false,false
686,0.18617586600000005,0.9522255704986962,0.9826255583061165,1.0167655052189954,0.012225570498696214,0.14777442950130393,0.012225570498696214,false,false,0.042625558306116584,0.11737444169388356,0.042625558306116584,false,false,0.0767655052189955,0.08323449478100464,0.0767655052189955,false,false,0.012225570498696214,0.00989486884462817,false,false
786,0.19173608600000003,0.9524779946643981,0.9834178175784417,1.0163606717897404,0.01247799466439814,0.147522005335602,0.01247799466439814,false,false,0.043417817578441764,0.11658218242155838,0.043417817578441764,false,false,0.07636067178974049,0.08363932821025966,0.07636067178974049,false,false,0.01247799466439814,0.00982615685329651,false,false
388,0.14051565100000002,0.957012077502801,0.9877478366019553,1.0135636360517772,0.017012077502801093,0.14298792249719905,0.017012077502801093,false,false,0.04774783660195536,0.11225216339804478,0.04774783660195536,false,false,0.07356363605177729,0.08643636394822285,0.07356363605177729,false,false,0.017012077502801093,0.00883270007076089,false,false
74,0.068936021,0.9721092476789408,0.9938375400869319,1.0079161136817543,0.032109247678940855,0.1278907523210593,0.032109247678940855,false,false,0.05383754008693198,0.10616245991306816,0.05383754008693198,false,false,0.06791611368175432,0.09208388631824582,0.06791611368175432,false,false,0.032109247678940855,0.0056975091843697945,false,false
839,0.27528196600000004,0.9466521194597178,0.9838777627487045,1.0176389023826435,0.006652119459717887,0.15334788054028226,0.006652119459717887,false,false,0.043877762748704585,0.11612223725129556,0.043877762748704585,false,false,0.0776389023826436,0.08236109761735655,0.0776389023826436,false,false,0.006652119459717887,0.010959374487160856,false,false
578,0.15998157600000001,0.9541788929497748,0.9844084086195236,1.0156211993617805,0.014178892949774813,0.14582110705022533,0.014178892949774813,false,false,0.044408408619523665,0.11559159138047648,0.044408408619523665,false,false,0.07562119936178058,0.08437880063821956,0.07562119936178058,false,false,0.014178892949774813,0.009461749775551373,false,false
314,0.115069961,0.9638397900451968,0.990682199614407,1.01073587325795,0.023839790045196874,0.13616020995480327,0.023839790045196874,false,false,0.05068219961440701,0.10931780038559313,0.05068219961440701,false,false,0.07073587325794994,0.0892641267420502,0.07073587325794994,false,false,0.023839790045196874,0.007437876225190452,false,false
615,0.17384510600000003,0.9530884032136381,0.9834760792159924,1.0162389383304584,0.013088403213638133,0.146911596786362,0.013088403213638133,false,false,0.0434760792159925,0.11652392078400764,0.0434760792159925,false,false,0.07623893833045847,0.08376106166954167,0.07623893833045847,false,false,0.013088403213638133,0.009701281664141314,false,false
25,0.022863341,0.9874545893246535,0.997899551246283,1.0033675241345639,0.04745458932465352,0.11254541067534662,0.04745458932465352,false,false,0.0578995512462831,0.10210044875371704,0.0578995512462831,false,false,0.06336752413456392,0.09663247586543622,0.06336752413456392,false,false,0.04745458932465352,0.002537315279008495,false,false
114,0.078815261,0.9644256228631948,0.9905353288006089,1.010699317512089,0.02442562286319483,0.1355743771368053,0.02442562286319483,false,false,0.05053532880060896,0.10946467119939118,0.05053532880060896,false,false,0.07069931751208913,0.08930068248791101,0.07069931751208913,false,false,0.02442562286319483,0.007311684072037553,false,false
166,0.115415071,0.9643225088981037,0.9905130046543579,1.0107377875292247,0.024322508898103723,0.13567749110189642,0.024322508898103723,false,false,0.05051300465435793,0.10948699534564221,0.05051300465435793,false,false,0.07073778752922477,0.08926221247077537,0.07073778752922477,false,false,0.024322508898103723,0.007335472512565744,false,false
886,0.29291489600000004,0.9461337959776579,0.9839910359875589,1.0177364347907656,0.006133795977657952,0.1538662040223422,0.006133795977657952,false,false,0.043991035987558935,0.1160089640124412,0.043991035987558935,false,false,0.07773643479076564,0.0822635652092345,0.07773643479076564,false,false,0.006133795977657952,0.011053586395696547,false,false
280,0.11606298100000001,0.9584782973380118,0.9873726270622343,1.0134243293067307,0.018478297338011873,0.14152170266198827,0.018478297338011873,false,false,0.04737262706223433,0.11262737293776581,0.04737262706223433,false,false,0.0734243293067307,0.08657567069326944,0.0734243293067307,false,false,0.018478297338011873,0.008544226239695174,false,false
484,0.20315996100000006,0.9517767709048668,0.989029700809826,1.0143358836424992,0.01177677090486684,0.1482232290951333,0.01177677090486684,false,false,0.04902970080982605,0.1109702991901741,0.04902970080982605,false,false,0.07433588364249921,0.08566411635750093,0.07433588364249921,false,false,0.01177677090486684,0.009854275586821394,false,false
47,0.047364841000000005,0.9808852571333785,0.9966324915417001,1.0051203157011734,0.04088525713337854,0.1191147428666216,0.04088525713337854,false,false,0.056632491541700136,0.1033675084583,0.056632491541700136,false,false,0.06512031570117349,0.09487968429882665,0.06512031570117349,false,false,0.04088525713337854,0.003886613256800265,false,false
73,0.068936021,0.9722304161650261,0.9938010617113244,1.0079149191939618,0.0322304161650262,0.12776958383497394,0.0322304161650262,false,false,0.05380106171132448,0.10619893828867566,0.05380106171132448,false,false,0.06791491919396186,0.09208508080603828,0.06791491919396186,false,false,0.0322304161650262,0.005671631747815998,false,false
310,0.12429317100000001,0.9575475515651487,0.9875858006831238,1.0135586928337001,0.017547551565148756,0.1424524484348514,0.017547551565148756,false,false,0.0475858006831239,0.11241419931687624,0.0475858006831239,false,false,0.0735586928337002,0.08644130716629994,0.0735586928337002,false,false,0.017547551565148756,0.008722720153263206,false,false
406,0.15743077300000002,0.955811560292647,0.9879968329139864,1.0137921792600952,0.015811560292647076,0.14418843970735307,0.015811560292647076,false,false,0.04799683291398649,0.11200316708601366,0.04799683291398649,false,false,0.07379217926009529,0.08620782073990485,0.07379217926009529,false,false,0.015811560292647076,0.009060220011825378,false,false
325,0.134972571,0.9565534695882689,0.9877959514999107,1.0137079394169202,0.016553469588268976,0.14344653041173117,0.016553469588268976,false,false,0.04779595149991078,0.11220404850008936,0.04779595149991078,false,false,0.07370793941692022,0.08629206058307992,0.07370793941692022,false,false,0.016553469588268976,0.008915238929205696,false,false
70,0.035515384,0.9860214950973176,0.998329140837979,1.003381878108171,0.04602149509731768,0.11397850490268246,0.04602149509731768,false,false,0.05832914083797902,0.10167085916202112,0.05832914083797902,false,false,0.06338187810817097,0.09661812189182917,0.06338187810817097,false,false,0.04602149509731768,0.0028557161872827096,false,false
349,0.137189101,0.9572196454038879,0.9876850251198256,1.013561716300415,0.017219645403887984,0.14278035459611216,0.017219645403887984,false,false,0.04768502511982564,0.1123149748801745,0.04768502511982564,false,false,0.07356171630041497,0.08643828369958517,0.07356171630041497,false,false,0.017219645403887984,0.008789977090249715,false,false
391,0.130735805,0.9570550789627685,0.9862501574384978,1.0141985190008844,0.01705507896276859,0.14294492103723155,0.01705507896276859,false,false,0.04625015743849781,0.11374984256150233,0.04625015743849781,false,false,0.07419851900088448,0.08580148099911566,0.07419851900088448,false,false,0.01705507896276859,0.00884827534800275,false,false
587,0.22919195100000003,0.950944372787463,0.9891318438629669,1.0145045983532541,0.010944372787463075,0.14905562721253707,0.010944372787463075,false,false,0.049131843862966984,0.11086815613703316,0.049131843862966984,false,false,0.07450459835325418,0.08549540164674596,0.07450459835325418,false,false,0.010944372787463075,0.010019474224570649,false,false
604,0.23943445100000002,0.9507831030125071,0.9891821630871853,1.0145237616226477,0.010783103012507178,0.14921689698749296,0.010783103012507178,false,false,0.04918216308718537,0.11081783691281477,0.04918216308718537,false,false,0.07452376162264773,0.08547623837735241,0.07452376162264773,false,false,0.010783103012507178,0.010051497850597448,false,false
861,0.20153700600000002,0.9523664284897521,0.9834516605907204,1.0163616183856337,0.012366428489752113,0.14763357151024803,0.012366428489752113,false,false,0.043451660590720476,0.11654833940927967,0.043451660590720476,false,false,0.07636161838563371,0.08363838161436643,0.07636161838563371,false,false,0.012366428489752113,0.009848120528343484,false,false
860,0.19684790600000002,0.9524218654550252,0.9834348440387111,1.0163611478630037,0.012421865455025216,0.14757813454497493,0.012421865455025216,false,false,0.04343484403871112,0.11656515596128902,0.04343484403871112,false,false,0.07636114786300374,0.0836388521369964,0.07636114786300374,false,false,0.012421865455025216,0.009837202504727811,false,false
563,0.20870813100000005,0.9517322206674598,0.9890431935798866,1.014336320708091,0.011732220667459825,0.14826777933254032,0.011732220667459825,false,false,0.049043193579886624,0.11095680642011352,0.049043193579886624,false,false,0.07433632070809115,0.08566367929190899,0.07433632070809115,false,false,0.011732220667459825,0.009863842391623672,false,false
145,0.099082571,0.9643199937717024,0.9905372561398464,1.0107312770500134,0.024319993771702464,0.13568000622829768,0.024319993771702464,false,false,0.0505372561398465,0.10946274386015364,0.0505372561398465,false,false,0.07073127705001347,0.08926872294998667,0.07073127705001347,false,false,0.024319993771702464,0.00733750725799826,false,false
336,0.13199180100000002,0.9572611390136551,0.987672469009394,1.0135613330562947,0.017261139013655113,0.14273886098634503,0.017261139013655113,false,false,0.047672469009394036,0.1123275309906061,0.047672469009394036,false,false,0.07356133305629475,0.08643866694370539,0.07356133305629475,false,false,0.017261139013655113,0.00878145035063625,false,false
36,0.041212241000000004,0.9809408185115124,0.9966158085342326,1.005119759549443,0.04094081851151243,0.11905918148848771,0.04094081851151243,false,false,0.05661580853423265,0.1033841914657675,0.05661580853423265,false,false,0.06511975954944305,0.0948802404505571,0.06511975954944305,false,false,0.04094081851151243,0.003874475070156543,false,false
